Metadata-Version: 2.4
Name: PyHydroGeophysX
Version: 0.1.0
Summary: A comprehensive Python package for integrating hydrological model outputs with geophysical forward modeling and inversion
Home-page: https://github.com/geohang/PyHydroGeophysX
Author: Hang Chen
Author-email: Hang Chen <hangchen.work@gmail.com>
License: MIT
Project-URL: Homepage, https://github.com/geohang/PyHydroGeophysX
Project-URL: Documentation, https://geohang.github.io/PyHydroGeophysX/
Project-URL: Repository, https://github.com/geohang/PyHydroGeophysX
Project-URL: Bug Tracker, https://github.com/geohang/PyHydroGeophysX/issues
Keywords: geophysics,hydrology,ERT,seismic,tomography,inversion,MODFLOW,ParFlow,watershed monitoring
Classifier: Development Status :: 3 - Alpha
Classifier: Intended Audience :: Science/Research
Classifier: Topic :: Scientific/Engineering :: Hydrology
Classifier: Topic :: Scientific/Engineering :: Physics
Classifier: License :: OSI Approved :: MIT License
Classifier: Operating System :: OS Independent
Classifier: Programming Language :: Python :: 3
Classifier: Programming Language :: Python :: 3.8
Classifier: Programming Language :: Python :: 3.9
Classifier: Programming Language :: Python :: 3.10
Classifier: Programming Language :: Python :: 3.11
Classifier: Programming Language :: Python :: 3.12
Requires-Python: >=3.8
Description-Content-Type: text/markdown
License-File: LICENSE
Requires-Dist: numpy>=1.19
Requires-Dist: scipy>=1.5
Requires-Dist: matplotlib>=3.2
Requires-Dist: tqdm>=4.0
Provides-Extra: geophysics
Requires-Dist: pygimli>=1.5; extra == "geophysics"
Requires-Dist: flopy; extra == "geophysics"
Requires-Dist: joblib; extra == "geophysics"
Provides-Extra: gpu
Requires-Dist: cupy; extra == "gpu"
Provides-Extra: dev
Requires-Dist: pytest>=6.0; extra == "dev"
Requires-Dist: pytest-cov; extra == "dev"
Requires-Dist: black; extra == "dev"
Requires-Dist: flake8; extra == "dev"
Provides-Extra: all
Requires-Dist: pygimli>=1.5; extra == "all"
Requires-Dist: flopy; extra == "all"
Requires-Dist: joblib; extra == "all"
Requires-Dist: cupy; extra == "all"
Requires-Dist: pytest>=6.0; extra == "all"
Requires-Dist: pytest-cov; extra == "all"
Requires-Dist: black; extra == "all"
Requires-Dist: flake8; extra == "all"
Dynamic: author
Dynamic: home-page
Dynamic: license-file
Dynamic: requires-python

# PyHydroGeophysX

A comprehensive Python package for integrating hydrological model outputs with geophysical forward modeling and inversion, specializing in electrical resistivity tomography (ERT) and seismic refraction tomography (SRT) for watershed monitoring applications.

## 🌟 Key Features

- 🌊 **Hydrological Model Integration:** Seamless loading and processing of MODFLOW and ParFlow outputs  
- 🪨 **Petrophysical Relationships:** Advanced models for converting between water content, saturation, resistivity, and seismic velocity  
- ⚡ **Forward Modeling:** Complete ERT and SRT forward modeling capabilities with synthetic data generation  
- 🔄 **Time-Lapse Inversion:** Sophisticated algorithms for time-lapse ERT inversion with temporal regularization  
- 🏔️ **Structure-Constrained Inversion:** Integration of seismic velocity interfaces for constrained ERT inversion  
- 📊 **Uncertainty Quantification:** Monte Carlo methods for parameter uncertainty assessment  
- 🚀 **High Performance:** GPU acceleration support (CUDA/CuPy) and parallel processing capabilities  
- 📈 **Advanced Solvers:** Multiple linear solvers (CGLS, LSQR, RRLS) with optional GPU acceleration

## 📋 Requirements

- Python 3.8 or higher  
- NumPy, SciPy, Matplotlib  
- PyGIMLi (for geophysical modeling)  
- Optional: CuPy (for GPU acceleration), joblib (for parallel processing)

## 🛠️ Installation

### From Source

```bash
git clone https://github.com/yourusername/PyHydroGeophysX.git
cd PyHydroGeophysX
pip install -e .
```

### Dependencies

```bash
pip install numpy scipy matplotlib pygimli joblib tqdm
```

For GPU support (optional):

```bash
pip install cupy-cuda11x  # Replace with your CUDA version
```




## 📚 Documentation

Comprehensive documentation is available at Read the Docs.

To build documentation locally:

```bash
cd docs
make html
```

## 🗂️ Package Structure

```
PyHydroGeophysX/
├── core/               # Core utilities
│   ├── interpolation.py    # Profile interpolation tools
│   └── mesh_utils.py       # Mesh creation and manipulation
├── model_output/       # Hydrological model interfaces
│   ├── modflow_output.py   # MODFLOW data loading
│   └── parflow_output.py   # ParFlow data loading
├── petrophysics/       # Rock physics models
│   ├── resistivity_models.py  # Waxman-Smits, Archie models
│   └── velocity_models.py     # DEM, Hertz-Mindlin models
├── forward/            # Forward modeling
│   ├── ert_forward.py      # ERT forward modeling
│   └── srt_forward.py      # Seismic forward modeling
├── inversion/          # Inverse modeling
│   ├── ert_inversion.py    # Single-time ERT inversion
│   ├── time_lapse.py       # Time-lapse inversion
│   └── windowed.py         # Windowed time-lapse for large datasets
├── solvers/            # Linear algebra solvers
│   └── linear_solvers.py   # CGLS, LSQR, RRLS with GPU support
├── Hydro_modular/      # Direct hydro-to-geophysics conversion
└── Geophy_modular/     # Geophysical data processing tools
```

## 📖 Examples

The `examples/` directory contains comprehensive tutorials:

- `Ex1_model_output.py`: Loading hydrological model outputs  
- `Ex2_workflow.py`: Complete workflow from hydro models to geophysical inversion  
- `Ex3_Time_lapse_measurement.py`: Creating synthetic time-lapse ERT data  
- `Ex4_TL_inversion.py`: Time-lapse ERT inversion techniques  
- `Ex5_SRT.py`: Seismic refraction tomography workflow  
- `Ex6_Structure_resinv.py`: Structure-constrained resistivity inversion  
- `Ex7_structure_TLresinv.py`: Structure-constrained time-lapse inversion  
- `Ex8_MC_WC.py`: Monte Carlo uncertainty quantification

## 🚀 Quick Start

## 1. Hydrological Model Integration

Load and process outputs from various hydrological models:

```python
# MODFLOW
from PyHydroGeophysX import MODFLOWWaterContent, MODFLOWPorosity

processor = MODFLOWWaterContent("sim_workspace", idomain)
water_content = processor.load_time_range(start_idx=0, end_idx=10)

# ParFlow
from PyHydroGeophysX import ParflowSaturation, ParflowPorosity

saturation_proc = ParflowSaturation("model_dir", "run_name")
saturation = saturation_proc.load_timestep(100)
```

## 2. Petrophysical Modeling

Convert between hydrological and geophysical properties:

```python
from PyHydroGeophysX.petrophysics import (
    water_content_to_resistivity,
    HertzMindlinModel,
    DEMModel
)

# Water content to resistivity (Waxman-Smits model)
resistivity = water_content_to_resistivity(
    water_content=wc, rhos=100, n=2.2, porosity=0.3, sigma_sur=0.002
)

# Water content to seismic velocity (rock physics models)
hm_model = HertzMindlinModel()
vp_high, vp_low = hm_model.calculate_velocity(
    porosity=porosity, saturation=saturation,
    bulk_modulus=30.0, shear_modulus=20.0, mineral_density=2650
)
```

## 3. Forward Modeling

Generate synthetic geophysical data:

```python
from PyHydroGeophysX.forward import ERTForwardModeling, SeismicForwardModeling

# ERT forward modeling
ert_fwd = ERTForwardModeling(mesh, data)
synthetic_data = ert_fwd.create_synthetic_data(
    xpos=electrode_positions, res_models=resistivity_model
)

# Seismic forward modeling
srt_fwd = SeismicForwardModeling(mesh, scheme)
travel_times = srt_fwd.create_synthetic_data(
    sensor_x=geophone_positions, velocity_model=velocity_model
)
```

## 4. Time-Lapse Inversion

Perform sophisticated time-lapse ERT inversions:

```python
from PyHydroGeophysX.inversion import TimeLapseERTInversion, WindowedTimeLapseERTInversion

# Full time-lapse inversion
inversion = TimeLapseERTInversion(
    data_files=ert_files,
    measurement_times=times,
    lambda_val=50.0,        # Spatial regularization
    alpha=10.0,             # Temporal regularization
    inversion_type="L2"     # L1, L2, or L1L2
)
result = inversion.run()

# Windowed inversion for large datasets
windowed_inv = WindowedTimeLapseERTInversion(
    data_dir="data/", ert_files=files, window_size=3
)
result = windowed_inv.run(window_parallel=True)
```

## 5. Uncertainty Quantification

Quantify uncertainty in water content estimates:

```python
from PyHydroGeophysX.Geophy_modular import ERTtoWC

# Set up Monte Carlo analysis
converter = ERTtoWC(mesh, resistivity_values, cell_markers, coverage)

# Define parameter distributions for different geological layers
layer_distributions = {
    3: {  # Top layer
        'rhos': {'mean': 100.0, 'std': 20.0},
        'n': {'mean': 2.2, 'std': 0.2},
        'porosity': {'mean': 0.40, 'std': 0.05}
    },
    2: {  # Bottom layer
        'rhos': {'mean': 500.0, 'std': 100.0},
        'n': {'mean': 1.8, 'std': 0.2},
        'porosity': {'mean': 0.35, 'std': 0.1}
    }
}

converter.setup_layer_distributions(layer_distributions)
wc_all, sat_all, params = converter.run_monte_carlo(n_realizations=100)
stats = converter.get_statistics()  # mean, std, percentiles
```

## 📊 Example Workflows

### Complete Workflow: Hydrology to Geophysics

```python
from PyHydroGeophysX import *

# 1. Load hydrological data
processor = MODFLOWWaterContent("modflow_dir", idomain)
water_content = processor.load_timestep(timestep=50)

# 2. Set up 2D profile interpolation
interpolator = ProfileInterpolator(
    point1=[115, 70], point2=[95, 180], 
    surface_data=surface_elevation
)

# 3. Create mesh with geological structure
mesh_creator = MeshCreator(quality=32)
mesh, _ = mesh_creator.create_from_layers(
    surface=surface_line, layers=[layer1, layer2]
)

# 4. Convert to resistivity
resistivity = water_content_to_resistivity(
    water_content, rhos=100, n=2.2, porosity=0.3
)

# 5. Forward model synthetic ERT data
synthetic_data, _ = ERTForwardModeling.create_synthetic_data(
    xpos=electrode_positions, mesh=mesh, res_models=resistivity
)

# 6. Invert synthetic data
inversion = ERTInversion(data_file="synthetic_data.dat")
result = inversion.run()
```

### Structure-Constrained Inversion

```python
# 1. Process seismic data to extract velocity structure
from PyHydroGeophysX.Geophy_modular import process_seismic_tomography, extract_velocity_structure

TT_manager = process_seismic_tomography(travel_time_data, lam=50)
interface_x, interface_z, _ = extract_velocity_structure(
    TT_manager.paraDomain, TT_manager.model.array(), threshold=1200
)

# 2. Create ERT mesh with velocity interface constraints
from PyHydroGeophysX.Geophy_modular import create_ert_mesh_with_structure

constrained_mesh, markers, regions = create_ert_mesh_with_structure(
    ert_data, (interface_x, interface_z)
)

# 3. Run constrained inversion
inversion = TimeLapseERTInversion(
    data_files=ert_files, mesh=constrained_mesh
)
result = inversion.run()
```

## 🛠 Advanced Features

### GPU Acceleration

Enable GPU acceleration for large-scale inversions:

```python
inversion = TimeLapseERTInversion(
    data_files=files,
    use_gpu=True,           # Requires CuPy
    parallel=True,          # CPU parallelization
    n_jobs=-1               # Use all available cores
)
```

## 🤝 Contributing

We welcome contributions! Please see our Contributing Guidelines for details.

- Fork the repository  
- Create your feature branch (`git checkout -b feature/AmazingFeature`)  
- Commit your changes (`git commit -m 'Add some AmazingFeature'`)  
- Push to the branch (`git push origin feature/AmazingFeature`)  
- Open a Pull Request  

## 📝 Citation

If you use PyHydroGeophysX in your research, please cite:

```bibtex
@software{chen2025pyhydrogeophysx,
  author = {Chen, Hang},
  title = {PyHydroGeophysX: Integrating Hydrological and Geophysical Modeling},
  year = {2025},
  publisher = {GitHub},
  url = {https://github.com/yourusername/PyHydroGeophysX}
}
```

## 📄 License

This project is licensed under the MIT License - see the LICENSE file for details.

## 🙏 Acknowledgments

- PyGIMLi team for the excellent geophysical modeling framework  
- MODFLOW and ParFlow communities for hydrologic modeling tools  

## 📧 Contact

Author: Hang Chen  
Email: hchen8@lbl.gov
Issues: GitHub Issues  

---

PyHydroGeophysX - Bridging the gap between hydrological models and geophysical monitoring

Note: This package is under active development. Please report issues and feature requests through the GitHub issue tracker.
