units(length='cm', time='s', quantity='mol', act_energy='cal/mol')

ideal_gas(name='gas',
          elements="C H O N",
          species="""H2       O2       CO       CO2      CH4
                     C2H6     CH2O     C2H2     C2H4     C3H6
                     CH3OH    AC3H4    C4H4     C4H6     C4H2
                     PC3H4    C6H6     NC10H22  PHC3H7   TOLUEN
                     STYREN   PHHCO    PHCH2OH  CYC9H18  N2
                     H        O        OH       HO2      H2O
                     HCO      CH3      SCH2     C2H5     CH2
                     CH       CH3O     CH2OH    C3H3     CH2CO
                     C2H3     CH2HCO   C2H      HCCO     IC4H3
                     C2H2OH   NC3H7    AC3H5    C3H2     NC4H3
                     PC4H9    NC4H5    AC5H11   AC6H13   BC6H13
                     AC7H15   AC8H17   AC10H21  CC10H21  DC10H21
                     EC10H21  APHC3H6  CPHC3H6  PHCH2    C6H5
                     APHC2H4  C6H5O    C5H5     C5H4OH   C5H4O
                     PHCO     CC9H17C  EC9H17C  FC9H17C  NO
                     HCN      N2O      NO2      HNO      HONO
                     H2CN     NNH      NH2      NH       N
                     CN       NCO      HOCN     HNCO""",
          reactions='all',
          transport='Mix',
          initial_state=state(temperature=300.0, pressure=OneAtm))

#-------------------------------------------------------------------------------
# Species data
# Mechanism contains 89 species and 680 reactions.
#-------------------------------------------------------------------------------

species(name='H2',
        atoms='H:2',
        thermo=(NASA([300.00, 1000.00],
                     [ 3.29812000E+00,  8.24940000E-04, -8.14300000E-07,
                      -9.47500000E-11,  4.13490000E-13, -1.01250000E+03,
                      -3.29400000E+00]),
                NASA([1000.00, 5000.00],
                     [ 2.99142000E+00,  7.00060000E-04, -5.63400000E-08,
                      -9.23000000E-12,  1.58000000E-15, -8.35000000E+02,
                      -1.35500000E+00])),
        transport=gas_transport(geom='linear',
                                diam=2.92,
                                well_depth=38.0,
                                polar=0.79,
                                rot_relax=280.0))

species(name='O2',
        atoms='O:2',
        thermo=(NASA([300.00, 1000.00],
                     [ 3.21294000E+00,  1.12749000E-03, -5.75620000E-07,
                       1.31388000E-09, -8.76860000E-13, -1.00520000E+03,
                       6.03500000E+00]),
                NASA([1000.00, 5000.00],
                     [ 3.69758000E+00,  6.13520000E-04, -1.25880000E-07,
                       1.77500000E-11, -1.14000000E-15, -1.23390000E+03,
                       3.18900000E+00])),
        transport=gas_transport(geom='linear',
                                diam=3.458,
                                well_depth=107.4,
                                polar=1.6,
                                rot_relax=3.8))

species(name='CO',
        atoms='C:1 O:1',
        thermo=(NASA([300.00, 1000.00],
                     [ 3.26245000E+00,  1.51194000E-03, -3.88175000E-06,
                       5.58194000E-09, -2.47495000E-12, -1.43105000E+04,
                       4.84900000E+00]),
                NASA([1000.00, 5000.00],
                     [ 3.02508000E+00,  1.44269000E-03, -5.63080000E-07,
                       1.01860000E-10, -6.91000000E-15, -1.42683000E+04,
                       6.10800000E+00])),
        transport=gas_transport(geom='linear',
                                diam=3.65,
                                well_depth=98.1,
                                polar=1.95,
                                rot_relax=1.8))

species(name='CO2',
        atoms='C:1 O:2',
        thermo=(NASA([300.00, 1000.00],
                     [ 2.27572000E+00,  9.92207000E-03, -1.04091100E-05,
                       6.86669000E-09, -2.11728000E-12, -4.83731000E+04,
                       1.01880000E+01]),
                NASA([1000.00, 5000.00],
                     [ 4.45362000E+00,  3.14017000E-03, -1.27841000E-06,
                       2.39400000E-10, -1.66900000E-14, -4.89670000E+04,
                      -9.55000000E-01])),
        transport=gas_transport(geom='linear',
                                diam=3.763,
                                well_depth=244.0,
                                polar=2.65,
                                rot_relax=2.1))

species(name='CH4',
        atoms='H:4 C:1',
        thermo=(NASA([300.00, 1000.00],
                     [ 7.78740000E-01,  1.74766800E-02, -2.78340900E-05,
                       3.04970800E-08, -1.22393100E-11, -9.82520000E+03,
                       1.37220000E+01]),
                NASA([1000.00, 5000.00],
                     [ 1.68348000E+00,  1.02372400E-02, -3.87513000E-06,
                       6.78560000E-10, -4.50300000E-14, -1.00808000E+04,
                       9.62300000E+00])),
        transport=gas_transport(geom='nonlinear',
                                diam=3.746,
                                well_depth=141.4,
                                polar=2.6,
                                rot_relax=13.0))

species(name='C2H6',
        atoms='H:6 C:2',
        thermo=(NASA([300.00, 1000.00],
                     [ 1.46254000E+00,  1.54946700E-02,  5.78051000E-06,
                      -1.25783200E-08,  4.58627000E-12, -1.12392000E+04,
                       1.44320000E+01]),
                NASA([1000.00, 5000.00],
                     [ 4.82594000E+00,  1.38404300E-02, -4.55726000E-06,
                       6.72500000E-10, -3.59800000E-14, -1.27178000E+04,
                      -5.24000000E+00])),
        transport=gas_transport(geom='nonlinear',
                                diam=4.302,
                                well_depth=252.3,
                                rot_relax=1.5))

species(name='CH2O',
        atoms='H:2 C:1 O:1',
        thermo=(NASA([300.00, 1000.00],
                     [ 1.65273000E+00,  1.26314400E-02, -1.88816800E-05,
                       2.05003100E-08, -8.41324000E-12, -1.48654000E+04,
                       1.37850000E+01]),
                NASA([1000.00, 5000.00],
                     [ 2.99561000E+00,  6.68132000E-03, -2.62895000E-06,
                       4.73720000E-10, -3.21300000E-14, -1.53204000E+04,
                       6.91300000E+00])),
        transport=gas_transport(geom='nonlinear',
                                diam=3.59,
                                well_depth=498.0,
                                rot_relax=2.0))

species(name='C2H2',
        atoms='H:2 C:2',
        thermo=(NASA([300.00, 1000.00],
                     [ 2.01356000E+00,  1.51904500E-02, -1.61631900E-05,
                       9.07899000E-09, -1.91275000E-12,  2.61244000E+04,
                       8.80500000E+00]),
                NASA([1000.00, 5000.00],
                     [ 4.43677000E+00,  5.37604000E-03, -1.91282000E-06,
                       3.28640000E-10, -2.15700000E-14,  2.56677000E+04,
                      -2.80000000E+00])),
        transport=gas_transport(geom='linear',
                                diam=4.1,
                                well_depth=209.0,
                                rot_relax=2.5))

species(name='C2H4',
        atoms='H:4 C:2',
        thermo=(NASA([300.00, 1000.00],
                     [-8.61490000E-01,  2.79616300E-02, -3.38867700E-05,
                       2.78515200E-08, -9.73788000E-12,  5.57300000E+03,
                       2.42110000E+01]),
                NASA([1000.00, 5000.00],
                     [ 3.52842000E+00,  1.14851800E-02, -4.41839000E-06,
                       7.84460000E-10, -5.26700000E-14,  4.42830000E+03,
                       2.23000000E+00])),
        transport=gas_transport(geom='nonlinear',
                                diam=3.971,
                                well_depth=280.8,
                                rot_relax=1.5))

species(name='C3H6',
        atoms='H:6 C:3',
        thermo=(NASA([300.00, 1000.00],
                     [ 1.45751570E+00,  2.11422630E-02,  4.04680120E-06,
                      -1.63190030E-08,  7.04751530E-12,  1.07402080E+03,
                       1.73994600E+01]),
                NASA([1000.00, 5000.00],
                     [ 6.72139740E+00,  1.49317570E-02, -4.96523530E-06,
                       7.25107530E-10, -3.80014760E-14, -9.24531490E+02,
                      -1.21556170E+01])),
        transport=gas_transport(geom='nonlinear',
                                diam=4.982,
                                well_depth=266.8,
                                rot_relax=1.0))

species(name='CH3OH',
        atoms='H:4 C:1 O:1',
        thermo=(NASA([300.00, 1000.00],
                     [ 2.66012000E+00,  7.34151000E-03,  7.17005000E-06,
                      -8.79319000E-09,  2.39057000E-12, -2.53535000E+04,
                       1.12330000E+01]),
                NASA([1000.00, 5000.00],
                     [ 4.02906000E+00,  9.37659000E-03, -3.05025000E-06,
                       4.35880000E-10, -2.22500000E-14, -2.61579000E+04,
                       2.37800000E+00])),
        transport=gas_transport(geom='nonlinear',
                                diam=3.626,
                                well_depth=481.8,
                                rot_relax=1.0))

species(name='AC3H4',
        atoms='H:4 C:3',
        thermo=(NASA([300.00, 1000.00],
                     [ 4.54532100E+00,  4.53206900E-04,  4.16424700E-05,
                      -5.25502300E-08,  2.01293200E-11,  2.12995900E+04,
                       1.77438900E+00]),
                NASA([1000.00, 5000.00],
                     [ 6.32180800E+00,  1.17551300E-02, -4.65467100E-06,
                       8.57135200E-10, -5.93275400E-14,  1.99904100E+04,
                      -1.14058000E+01])),
        transport=gas_transport(geom='linear',
                                diam=4.76,
                                well_depth=252.0,
                                rot_relax=1.0))

species(name='C4H4',
        atoms='H:4 C:4',
        thermo=(NASA([300.00, 1000.00],
                     [ 3.23389300E+00,  1.86563400E-02,  1.27032050E-06,
                      -9.41009600E-09,  2.95611000E-12,  3.30109700E+04,
                       9.92267600E+00]),
                NASA([1000.00, 4000.00],
                     [ 1.06977730E+01,  6.98201400E-03, -6.56774700E-07,
                      -3.88451700E-10,  7.20094600E-14,  3.03480300E+04,
                      -3.12843000E+01])),
        transport=gas_transport(geom='nonlinear',
                                diam=4.92,
                                well_depth=243.0,
                                rot_relax=1.0))

species(name='C4H6',
        atoms='H:6 C:4',
        thermo=(NASA([300.00, 1000.00],
                     [ 1.11078700E+01, -6.30279400E-03,  5.36192000E-05,
                      -5.91451900E-08,  2.12386300E-11,  9.68687700E+03,
                      -2.99286900E+01]),
                NASA([1000.00, 3000.00],
                     [ 9.84386200E+00,  1.54451700E-02, -5.71720000E-06,
                       1.01451600E-09, -6.86559300E-14,  9.07722800E+03,
                      -2.80034300E+01])),
        transport=gas_transport(geom='nonlinear',
                                diam=5.18,
                                well_depth=357.0,
                                rot_relax=1.0))

species(name='C4H2',
        atoms='H:2 C:4',
        thermo=(NASA([300.00, 1000.00],
                     [ 4.00519100E+00,  1.98100000E-02, -9.86587700E-06,
                      -6.63515800E-09,  6.07741300E-12,  5.42406500E+04,
                       1.84573600E+00]),
                NASA([1000.00, 5000.00],
                     [ 9.03140700E+00,  6.04725200E-03, -1.94878800E-06,
                       2.75486300E-10, -1.38560800E-14,  5.29473500E+04,
                      -2.38506700E+01])),
        transport=gas_transport(geom='linear',
                                diam=5.18,
                                well_depth=357.0,
                                rot_relax=1.0))

species(name='PC3H4',
        atoms='H:4 C:3',
        thermo=(NASA([300.00, 1000.00],
                     [ 6.11019900E+00, -6.74163900E-03,  5.32161800E-05,
                      -6.09887200E-08,  2.24879300E-11,  2.04065300E+04,
                      -4.85823200E+00]),
                NASA([1000.00, 5000.00],
                     [ 6.08923100E+00,  1.18664000E-02, -4.66853200E-06,
                       8.55887800E-10, -5.90552500E-14,  1.94666200E+04,
                      -9.35720100E+00])),
        transport=gas_transport(geom='linear',
                                diam=4.76,
                                well_depth=252.0,
                                rot_relax=1.0))

species(name='C6H6',
        atoms='H:6 C:6',
        thermo=(NASA([300.00, 1000.00],
                     [-3.13801200E+00,  4.72310300E-02, -2.96220700E-06,
                      -3.26281900E-08,  1.71869100E-11,  8.89003100E+03,
                       3.65757300E+01]),
                NASA([1000.00, 5000.00],
                     [ 1.29107400E+01,  1.72329600E-02, -5.02421000E-06,
                       5.89349700E-10, -1.94752100E-14,  3.66451100E+03,
                      -5.00269900E+01])),
        transport=gas_transport(geom='nonlinear',
                                diam=5.176,
                                well_depth=357.0,
                                rot_relax=1.0))

species(name='NC10H22',
        atoms='H:22 C:10',
        thermo=(NASA([300.00, 1000.00],
                     [-3.63263150E+00,  1.37973850E-01, -1.26041250E-04,
                       8.48764520E-08, -2.86411160E-11, -3.42001440E+04,
                       5.01377960E+01]),
                NASA([1000.00, 5000.00],
                     [ 2.25762110E+01,  6.14611030E-02, -2.32621620E-05,
                       4.02113040E-09, -2.60984600E-13, -4.18745080E+04,
                      -8.59265330E+01])),
        transport=gas_transport(geom='nonlinear',
                                diam=6.87,
                                well_depth=523.6,
                                rot_relax=1.0))

species(name='PHC3H7',
        atoms='H:12 C:9',
        thermo=(NASA([300.00, 1000.00],
                     [-4.23830000E+00,  9.00641500E-02, -5.33140800E-05,
                       9.88389100E-09,  1.25966100E-12, -1.32686300E+03,
                       4.69942100E+01]),
                NASA([1000.00, 3000.00],
                     [ 1.95645600E+01,  3.37187500E-02, -1.12799700E-05,
                       1.78064900E-09, -1.09008600E-13, -8.66884600E+03,
                      -7.90585200E+01])),
        transport=gas_transport(geom='nonlinear',
                                diam=6.28,
                                well_depth=482.8,
                                rot_relax=1.0))

species(name='TOLUEN',
        atoms='H:8 C:7',
        thermo=(NASA([200.00, 1000.00],
                     [ 1.61526630E+00,  2.10994380E-02,  8.53660180E-05,
                      -1.32610660E-07,  5.59566040E-11,  4.07563000E+03,
                       2.02822100E+01]),
                NASA([1000.00, 6000.00],
                     [ 1.29400340E+01,  2.66912870E-02, -9.68385050E-06,
                       1.57386290E-09, -9.46636010E-14, -6.97649080E+02,
                      -4.67287850E+01])),
        transport=gas_transport(geom='nonlinear',
                                diam=5.176,
                                well_depth=357.0,
                                rot_relax=1.0))

species(name='STYREN',
        atoms='H:8 C:8',
        thermo=(NASA([300.00, 1000.00],
                     [-4.72609100E+00,  8.11451000E-02, -5.87009600E-05,
                       1.43308700E-08,  2.02852700E-12,  1.60276300E+04,
                       4.66340700E+01]),
                NASA([1000.00, 5000.00],
                     [ 1.45713200E+01,  2.86018900E-02, -1.09459200E-05,
                       1.98666800E-09, -1.36510300E-13,  1.06025300E+04,
                      -5.33460500E+01])),
        transport=gas_transport(geom='nonlinear',
                                diam=5.176,
                                well_depth=357.0,
                                rot_relax=1.0))

species(name='PHHCO',
        atoms='H:6 C:7 O:1',
        thermo=(NASA([300.00, 1000.00],
                     [ 1.84165400E+00,  3.18111000E-02,  3.73716000E-05,
                      -7.17423000E-08,  3.07722300E-11, -6.56854400E+03,
                       2.08713700E+01]),
                NASA([1000.00, 5000.00],
                     [ 1.24773400E+01,  2.61563400E-02, -1.03558700E-05,
                       1.90868800E-09, -1.32223500E-13, -1.06995600E+04,
                      -3.99031000E+01])),
        transport=gas_transport(geom='nonlinear',
                                diam=5.176,
                                well_depth=357.0,
                                rot_relax=1.0))

species(name='PHCH2OH',
        atoms='H:8 C:7 O:1',
        thermo=(NASA([300.00, 1000.00],
                     [-1.81995100E+00,  5.97809500E-02, -1.59448400E-05,
                      -2.23943700E-08,  1.38271400E-11, -1.40399000E+04,
                       3.73669000E+01]),
                NASA([1000.00, 5000.00],
                     [ 1.27703600E+01,  3.02020200E-02, -1.14478000E-05,
                       2.06577500E-09, -1.41421500E-13, -1.86610900E+04,
                      -4.07502200E+01])),
        transport=gas_transport(geom='nonlinear',
                                diam=5.176,
                                well_depth=357.0,
                                rot_relax=1.0))

species(name='CYC9H18',
        atoms='H:18 C:9',
        thermo=(NASA([298.15, 1000.00],
                     [-7.51165300E+00,  1.15482600E-01, -6.19166800E-05,
                       9.18897800E-09,  1.86844300E-12, -2.52102300E+04,
                       6.12212600E+01]),
                NASA([1000.00, 5000.00],
                     [ 2.18692700E+01,  5.04244300E-02, -1.79047900E-05,
                       2.94622000E-09, -1.85533400E-13, -3.47612300E+04,
                      -9.60883900E+01])),
        transport=gas_transport(geom='nonlinear',
                                diam=6.28,
                                well_depth=482.8,
                                rot_relax=1.0))

species(name='N2',
        atoms='N:2',
        thermo=(NASA([300.00, 1000.00],
                     [ 3.29868000E+00,  1.40824000E-03, -3.96322000E-06,
                       5.64151000E-09, -2.44485000E-12, -1.02090000E+03,
                       3.95000000E+00]),
                NASA([1000.00, 5000.00],
                     [ 2.92664000E+00,  1.48798000E-03, -5.68480000E-07,
                       1.00970000E-10, -6.75000000E-15, -9.22800000E+02,
                       5.98100000E+00])),
        transport=gas_transport(geom='linear',
                                diam=3.621,
                                well_depth=97.53,
                                polar=1.76,
                                rot_relax=4.0))

species(name='H',
        atoms='H:1',
        thermo=(NASA([300.00, 1000.00],
                     [ 2.50000000E+00,  0.00000000E+00,  0.00000000E+00,
                       0.00000000E+00,  0.00000000E+00,  2.54716000E+04,
                      -4.60000000E-01]),
                NASA([1000.00, 5000.00],
                     [ 2.50000000E+00,  0.00000000E+00,  0.00000000E+00,
                       0.00000000E+00,  0.00000000E+00,  2.54716000E+04,
                      -4.60000000E-01])),
        transport=gas_transport(geom='atom',
                                diam=2.05,
                                well_depth=145.0))

species(name='O',
        atoms='O:1',
        thermo=(NASA([300.00, 1000.00],
                     [ 2.94643000E+00, -1.63817000E-03,  2.42103000E-06,
                      -1.60284000E-09,  3.89070000E-13,  2.91476000E+04,
                       2.96400000E+00]),
                NASA([1000.00, 5000.00],
                     [ 2.54206000E+00, -2.75500000E-05, -3.10000000E-09,
                       4.55000000E-12, -4.40000000E-16,  2.92308000E+04,
                       4.92000000E+00])),
        transport=gas_transport(geom='atom',
                                diam=2.75,
                                well_depth=80.0))

species(name='OH',
        atoms='H:1 O:1',
        thermo=(NASA([300.00, 1000.00],
                     [ 3.63727000E+00,  1.85090000E-04, -1.67616000E-06,
                       2.38720000E-09, -8.43140000E-13,  3.60680000E+03,
                       1.35886000E+00]),
                NASA([1000.00, 5000.00],
                     [ 2.88273000E+00,  1.01397000E-03, -2.27690000E-07,
                       2.17500000E-11, -5.10000000E-16,  3.88690000E+03,
                       5.59571000E+00])),
        transport=gas_transport(geom='linear',
                                diam=2.75,
                                well_depth=80.0))

species(name='HO2',
        atoms='H:1 O:2',
        thermo=(NASA([300.00, 1000.00],
                     [ 2.97996000E+00,  4.99670000E-03, -3.79100000E-06,
                       2.35419000E-09, -8.08900000E-13,  1.76200000E+02,
                       9.22300000E+00]),
                NASA([1000.00, 5000.00],
                     [ 4.07219000E+00,  2.13130000E-03, -5.30810000E-07,
                       6.11200000E-11, -2.84000000E-15, -1.58000000E+02,
                       3.47600000E+00])),
        transport=gas_transport(geom='nonlinear',
                                diam=3.458,
                                well_depth=107.4,
                                rot_relax=1.0))

species(name='H2O',
        atoms='H:2 O:1',
        thermo=(NASA([300.00, 1000.00],
                     [ 3.38684000E+00,  3.47498000E-03, -6.35470000E-06,
                       6.96858000E-09, -2.50659000E-12, -3.02081000E+04,
                       2.59000000E+00]),
                NASA([1000.00, 5000.00],
                     [ 2.67215000E+00,  3.05629000E-03, -8.73030000E-07,
                       1.20100000E-10, -6.39000000E-15, -2.98992000E+04,
                       6.86300000E+00])),
        transport=gas_transport(geom='nonlinear',
                                diam=2.605,
                                well_depth=572.4,
                                dipole=1.844,
                                rot_relax=4.0))

species(name='HCO',
        atoms='H:1 C:1 O:1',
        thermo=(NASA([300.00, 1000.00],
                     [ 2.89833000E+00,  6.19915000E-03, -9.62308000E-06,
                       1.08982500E-08, -4.57489000E-12,  4.15990000E+03,
                       8.98400000E+00]),
                NASA([1000.00, 5000.00],
                     [ 3.55727000E+00,  3.34557000E-03, -1.33501000E-06,
                       2.47060000E-10, -1.71400000E-14,  3.91630000E+03,
                       5.55200000E+00])),
        transport=gas_transport(geom='nonlinear',
                                diam=3.59,
                                well_depth=498.0))

species(name='CH3',
        atoms='H:3 C:1',
        thermo=(NASA([300.00, 1000.00],
                     [ 2.43044000E+00,  1.11241000E-02, -1.68022000E-05,
                       1.62182900E-08, -5.86495000E-12,  1.64238000E+04,
                       6.79000000E+00]),
                NASA([1000.00, 5000.00],
                     [ 2.84405000E+00,  6.13797000E-03, -2.23035000E-06,
                       3.78520000E-10, -2.45200000E-14,  1.64378000E+04,
                       5.45300000E+00])),
        transport=gas_transport(geom='linear',
                                diam=3.8,
                                well_depth=144.0))

species(name='SCH2',
        atoms='H:2 C:1',
        thermo=(NASA([300.00, 1000.00],
                     [ 3.97126510E+00, -1.69908880E-04,  1.02536890E-06,
                       2.49255080E-09, -1.98126630E-12,  4.98936760E+04,
                       5.75320720E-02]),
                NASA([1000.00, 4000.00],
                     [ 3.55288860E+00,  2.06678830E-03, -1.91411600E-07,
                      -1.10467340E-10,  2.02134960E-14,  4.98497540E+04,
                       1.68657000E+00])),
        transport=gas_transport(geom='linear',
                                diam=3.8,
                                well_depth=144.0))

species(name='C2H5',
        atoms='H:5 C:2',
        thermo=(NASA([300.00, 1000.00],
                     [ 1.60826700E-01,  2.07828000E-02, -4.55511600E-06,
                      -8.10191900E-09,  4.73414600E-12,  1.31615600E+04,
                       2.23023000E+01]),
                NASA([1000.00, 5000.00],
                     [ 4.80068800E+00,  1.18409900E-02, -4.33871800E-06,
                       7.69982800E-10, -5.22095600E-14,  1.16597600E+04,
                      -2.67583400E+00])),
        transport=gas_transport(geom='nonlinear',
                                diam=4.302,
                                well_depth=252.3,
                                rot_relax=1.5))

species(name='CH2',
        atoms='H:2 C:1',
        thermo=(NASA([300.00, 1000.00],
                     [ 3.76224000E+00,  1.15982000E-03,  2.48960000E-07,
                       8.80080000E-10, -7.33240000E-13,  4.53679000E+04,
                       1.71258000E+00]),
                NASA([1000.00, 5000.00],
                     [ 3.63641000E+00,  1.93306000E-03, -1.68700000E-07,
                      -1.00990000E-10,  1.80800000E-14,  4.53413000E+04,
                       2.15656000E+00])),
        transport=gas_transport(geom='linear',
                                diam=3.8,
                                well_depth=144.0))

species(name='CH',
        atoms='H:1 C:1',
        thermo=(NASA([300.00, 1000.00],
                     [ 3.20020000E+00,  2.07288000E-03, -5.13443000E-06,
                       5.73389000E-09, -1.95553000E-12,  7.04526000E+04,
                       3.33200000E+00]),
                NASA([1000.00, 5000.00],
                     [ 2.19622000E+00,  2.34038000E-03, -7.05820000E-07,
                       9.00800000E-11, -3.86000000E-15,  7.08672000E+04,
                       9.17800000E+00])),
        transport=gas_transport(geom='linear',
                                diam=2.75,
                                well_depth=80.0))

species(name='CH3O',
        atoms='H:3 C:1 O:1',
        thermo=(NASA([300.00, 1000.00],
                     [ 2.10620000E+00,  7.21660000E-03,  5.33847000E-06,
                      -7.37764000E-09,  2.07561000E-12,  9.78600000E+02,
                       1.31520000E+01]),
                NASA([1000.00, 5000.00],
                     [ 3.77080000E+00,  7.87150000E-03, -2.65638000E-06,
                       3.94440000E-10, -2.11300000E-14,  1.27800000E+02,
                       2.93000000E+00])),
        transport=gas_transport(geom='nonlinear',
                                diam=3.69,
                                well_depth=417.0,
                                dipole=1.7,
                                rot_relax=2.0))

species(name='CH2OH',
        atoms='H:3 C:1 O:1',
        thermo=(NASA([300.00, 1000.00],
                     [ 6.30719900E-01,  2.52254500E-02, -3.49591700E-05,
                       2.63935900E-08, -7.96825400E-12, -2.13128700E+03,
                       2.07318500E+01]),
                NASA([1000.00, 5000.00],
                     [ 5.59313600E+00,  5.15059700E-03, -1.69369000E-06,
                       2.91882300E-10, -1.95991600E-14, -3.20908200E+03,
                      -3.39179900E+00])),
        transport=gas_transport(geom='nonlinear',
                                diam=3.69,
                                well_depth=417.0,
                                dipole=1.7,
                                rot_relax=2.0))

species(name='C3H3',
        atoms='H:3 C:3',
        thermo=(NASA([300.00, 1000.00],
                     [ 5.66292500E+00,  4.30527600E-03,  1.82102600E-05,
                      -2.56947700E-08,  1.01630000E-11,  3.97829000E+04,
                      -3.25696000E+00]),
                NASA([1000.00, 5000.00],
                     [ 7.36984500E+00,  7.78547100E-03, -3.02169600E-06,
                       5.50994100E-10, -3.79292600E-14,  3.88919500E+04,
                      -1.41105200E+01])),
        transport=gas_transport(geom='linear',
                                diam=4.76,
                                well_depth=252.0,
                                rot_relax=1.0))

species(name='CH2CO',
        atoms='H:2 C:2 O:1',
        thermo=(NASA([300.00, 1000.00],
                     [ 2.97497000E+00,  1.21187100E-02, -2.34505000E-06,
                      -6.46668000E-09,  3.90565000E-12, -7.63260000E+03,
                       8.67400000E+00]),
                NASA([1000.00, 5000.00],
                     [ 6.03882000E+00,  5.80484000E-03, -1.92095000E-06,
                       2.79450000E-10, -1.45900000E-14, -8.58340000E+03,
                      -7.65800000E+00])),
        transport=gas_transport(geom='nonlinear',
                                diam=3.97,
                                well_depth=436.0,
                                rot_relax=2.0))

species(name='C2H3',
        atoms='H:3 C:2',
        thermo=(NASA([300.00, 1000.00],
                     [ 2.13881100E+00,  8.71822200E-03,  3.85898000E-06,
                      -9.36591500E-09,  4.01049800E-12,  3.50795000E+04,
                       1.34191800E+01]),
                NASA([1000.00, 5000.00],
                     [ 3.64765300E+00,  8.03377800E-03, -2.76449900E-06,
                       4.75309000E-10, -3.16440800E-14,  3.44688300E+04,
                       4.72278000E+00])),
        transport=gas_transport(geom='nonlinear',
                                diam=4.1,
                                well_depth=209.0,